* Library of models
*
* -----------------------------
* Diodes
* -----------------------------
.model Def D()
* -----------------------------
